$ Copyright (C) 2019-2020 R Cheung, Univeristy of Bristol

$ This program is free software: you can redistribute it and/or modify
$ it under the terms of the GNU General Public License as published by
$ the Free Software Foundation, either version 3 of the License, or
$ (at your option) any later version.
$
$ This program is distributed in the hope that it will be useful,
$ but WITHOUT ANY WARRANTY; without even the implied warranty of
$ MERCHANTABILITY or FITNESS FOR A PARTICULAR PURPOSE.  See the
$ GNU General Public License for more details.
$
$ You should have received a copy of the GNU General Public License
$ along with this program.  If not, see <https://www.gnu.org/licenses/>.
$-------2-------3-------4-------5-------6-------7-------8-------9-------T
$ FEM of WINDY Wind Tunnel Model fitted with the 'Lite' Folding Wingtip
$-------2-------3-------4-------5-------6-------7-------8-------9-------T
$ Created: R Cheung
$ Contact: r.c.m.cheung@bristol.ac.uk
$ Modified: 08 December 2020
$-------2-------3-------4-------5-------6-------7-------8-------9-------T
$ Main FEM
$-------2-------3-------4-------5-------6-------7-------8-------9-------T
$ Elements and Element Properties for region : wingBeam
PBEAML   1       1               BAR
        .03     .005
$ Pset: "wingBeam" will be imported as: "pbeaml.1"
CBEAM    1       1       1       2       0.      0.     1.
CBEAM    2       1       2       3       0.      0.     1.
CBEAM    3       1       3       4       0.      0.     1.
CBEAM    4       1       4       5       0.      0.     1.
CBEAM    5       1       5       6       0.      0.     1.
CBEAM    6       1       6       7       0.      0.     1.
CBEAM    7       1       7       8       0.      0.     1.
CBEAM    8       1       8       9       0.      0.     1.
CBEAM    9       1       9       10      0.      0.     1.
CBEAM    10      1       10      11      0.      0.     1.
CBEAM    11      1       11      13      0.      0.     1.
CBEAM    12      1       13      14      0.      0.     1.
CBEAM    13      1       14      15      0.      0.     1.
CBEAM    14      1       15      16      0.      0.     1.
CBEAM    15      1       16      17      0.      0.     1.
CBEAM    16      1       17      18      0.      0.     1.
CBEAM    17      1       18      19      0.      0.     1.
CBEAM    18      1       19      20      0.      0.     1.
CBEAM    19      1       20      21      0.      0.     1.
CBEAM    20      1       21      22      0.      0.     1.
$ ... 70 like lines cut
$ Elements and Element Properties for region : wingPanels
CONM2    91      11      0      .102    .028142  0.     2.-6
*       8.4627-5                        1.69282-4       4.-9
*                       2.4321-4
CONM2    92      22      0      .102    .028142  0.     2.-6
*       8.4627-5                        1.69282-4       4.-9
*                       2.4321-4
CONM2    93      33      0      .102    .028142  0.     2.-6
*       8.4627-5                        1.69282-4       4.-9
*                       2.4321-4
CONM2    94      44      0      .102    .028142  0.     2.-6
*       8.4627-5                        1.69282-4       4.-9
*                       2.4321-4
CONM2    95      55      0      .102    .028142  0.     2.-6
*       8.4627-5                        1.69282-4       4.-9
*                       2.4321-4
CONM2    96      66      0      .102    .028142  0.     2.-6
*       8.4627-5                        1.69282-4       4.-9
*                       2.4321-4
CONM2    97      77      0      .102    .028142  0.     2.-6
*       8.4627-5                        1.69282-4       4.-9
*                       2.4321-4
CONM2    98      88      0      .102    .028142  0.     2.-6
*       8.4627-5                        1.69282-4       4.-9
*                       2.4321-4
$ mass of cables + bolts
CONM2    1091    11      0      .040     .0365    0.     0.
CONM2    1092    22      0      .040     .0365    0.     0.
CONM2    1093    33      0      .040     .0365    0.     0.
CONM2    1094    44      0      .040     .0365    0.     0.
CONM2    1095    55      0      .040     .0365    0.     0.
CONM2    1096    66      0      .040     .0365    0.     0.
CONM2    1097    77      0      .040     .0365    0.     0.
CONM2    1098    88      0      .040     .0365    0.     0.
$ cable @ hingeIB
CONM2    1099    400     0      .040     .0365    0.     0.
CONM2    1199    400     0      .106     .0       0.     0.
$ cable @ hingeOB
CONM2    1100    401     0      .010     .0365    0.     0.
CONM2    1200    401     0      .006     .0       0.     0.
$-------2-------3-------4-------5-------6-------7-------8-------9-------T
$ Material Record : hingeSect
$ Description of Material : psuedo material for wing sections around the hinge
MAT1     3      2.0+9            .3      0.
$-------2-------3-------4-------5-------6-------7-------8-------9-------T
$ hinge inboard
$-------2-------3-------4-------5-------6-------7-------8-------9-------T
PBEAML   3       3               BAR
        .0193    .0133
GRID     400            .019107 .952046 1.39-4
CONM2    99      400     0      .207     0.      0.      0.
*       3.55345-4       1.0481-5        2.21554-4        5.55-7
*       1.790-6         5.60149-4
$-------2-------3-------4-------5-------6-------7-------8-------9-------T
CBEAM    2090    3       99      200     0.      0.     1.
CBEAM    2091    3       200     201     0.      0.     1.
CBEAM    2092    3       201     202     0.      0.     1.
CBEAM    2093    3       202     203     0.      0.     1.
CBEAM    2094    3       203     204     0.      0.     1.
CBEAM    2095    3       204     205     0.      0.     1.
CBEAM    2096    3       205     208     0.      0.     1.
GRID     200             0.     0.895    0.
GRID     201             0.     0.915    0.
GRID     202             0.     0.935    0.
GRID     203             0.     0.955    0.
GRID     204             0.     0.975    0.
GRID     205             0.     0.995    0.
RBE3    501             400     123456  1.0     123456  99      200
        201     202     203     204     205     208
$-------2-------3-------4-------5-------6-------7-------8-------9-------T
$ hinge outboard (wing-tip)
$-------2-------3-------4-------5-------6-------7-------8-------9-------T
CBEAM    2190    4       209     210     0.      0.     1.
CBEAM    2191    4       210     211     0.      0.     1.
CBEAM    2192    4       211     212     0.      0.     1.
CBEAM    2193    4       212     213     0.      0.     1.
CBEAM    2194    4       213     214     0.      0.     1.
CBEAM    2195    4       214     215     0.      0.     1.
CBEAM    2196    4       215     221     0.      0.     1.
GRID    210             0.      1.0565  0.
GRID    211             0.      1.1065  0.
GRID    212             0.      1.1565  0.
GRID    213             0.      1.2065  0.
GRID    214             0.      1.2565  0.
GRID    215             0.      1.3065  0.
RBE3    502             401     123456  1.0     123456  209     210
        211     212     213     214     215     221
$-------2-------3-------4-------5-------6-------7-------8-------9-------T
$ Elements and Element Properties for region : plotel
PLOTEL   4107    114     115
PLOTEL   4108    116     117
PLOTEL   4109    114     116
PLOTEL   4110    115     117
PLOTEL   4111    118     119
PLOTEL   4112    120     121
PLOTEL   4113    118     120
PLOTEL   4114    119     121
PLOTEL   4115    122     123
PLOTEL   4116    124     125
PLOTEL   4117    122     124
PLOTEL   4118    123     125
PLOTEL   4119    126     127
PLOTEL   4120    128     129
PLOTEL   4121    126     128
PLOTEL   4122    127     129
PLOTEL   4123    130     131
PLOTEL   4124    132     133
PLOTEL   4125    130     132
PLOTEL   4126    131     133
$ ... 19 like lines cut
$ Referenced Material Records
$ Material Record : ss
$ Description of Material : 316L
MAT1     1      1.93+11         .27     8000.
$ Material Record : st
$ Description of Material : STEEL
MAT1     2      2.+11           .3      7800.
$ Multipoint Constraints of the Entire Model
RBE2     311     11      123456  114     115     116     117
RBE2     312     22      123456  118     119     120     121
RBE2     313     33      123456  122     123     124     125
RBE2     314     44      123456  126     127     128     129
RBE2     315     55      123456  130     131     132     133
RBE2     316     66      123456  134     135     136     137
RBE2     317     77      123456  138     139     140     141
RBE2     318     88      123456  142     143     144     145
RBE2     319     99      123456  146     147
RBE2     320     208     123456  148     149
RBE2     321     221     123456  150     151
$ Nodes of the Entire Model
GRID     1               0.      0.      0.
GRID*    2                               0.             .008500000461936
*        0.
GRID*    3                               0.             .017000000923872
*        0.
GRID*    4                               0.             .025500001385808
*        0.
GRID*    5                               0.             .034000001847744
*        0.
GRID*    6                               0.             .042500000447034
*        0.
GRID*    7                               0.             .051000002771616
*        0.
GRID*    8                               0.             .059500001370906
*        0.
GRID*    9                               0.             .068000003695488
*        0.
GRID*    10                              0.             .076499998569488
*        0.
GRID*    11                              0.             .085000000894069
*        0.
GRID*    13                              0.             .095499999821186
*        0.
GRID*    14                              0.             .105999998748303
*        0.
GRID*    15                              0.             .116499997675419
*        0.
GRID*    16                              0.             .127000004053116
*        0.
GRID*    17                              0.             .137500002980232
*        0.
GRID*    18                              0.             .148000001907349
*        0.
GRID*    19                              0.             .158500000834465
*        0.
GRID*    20                              0.             .168999999761581
*        0.
GRID*    21                              0.             .179500013589859
*        0.
GRID*    22                              0.             .189999997615814
*        0.
$ ... 138 like lines cut
GRID     99              0.     .875     0.
GRID*    208                             0.             1.00651180744171
*        0.
GRID*    209                             0.             1.00651180744171
*        0.
GRID*    221                             0.             1.34500002861023
*        0.
GRID*    114                            -.03750000149011.033500000834465
*        0.
GRID*    115                            -.03750000149011.136500000953674
*        0.
GRID*    116                            .112499997019768.033500000834465
*        0.
GRID*    117                            .112499997019768.136500000953674
*        0.
GRID*    118                            -.03750000149011.13850000500679
*        0.
GRID*    119                            -.03750000149011.241500005126
*        0.
GRID*    120                            .112499997019768.13850000500679
*        0.
GRID*    121                            .112499997019768.241500005126
*        0.
GRID*    122                            -.03750000149011.243499994277954
*        0.
GRID*    123                            -.03750000149011.346500009298325
*        0.
GRID*    124                            .112499997019768.243499994277954
*        0.
GRID*    125                            .112499997019768.346500009298325
*        0.
GRID*    126                            -.03750000149011.34850001335144
*        0.
GRID*    127                            -.03750000149011.451499998569489
*        0.
GRID*    128                            .112499997019768.34850001335144
*        0.
GRID*    129                            .112499997019768.451499998569489
*        0.
GRID*    130                            -.03750000149011.453500002622604
*        0.
$ ... 42 like lines cut
$-------2-------3-------4-------5-------6-------7-------8-------9-------T
$ wing-tip
$-------2-------3-------4-------5-------6-------7-------8-------9-------T
INCLUDE 'litewingtip.bdf'
$-------2-------3-------4-------5-------6-------7-------8-------9-------T
$ Hinge Mechanism
$-------2-------3-------4-------5-------6-------7-------8-------9-------T
$ Key Node IDs:
$ Inboard hinge connection: 208
$ Outboard hinge connection: 209
$ Tip of wing-tip: 221
$ connection from inboard to pin holder
RBE2     303     208     123456  112     113
GRID,112,0,0.009848076850,1.0047752857208,0.0
GRID,113,0,-0.009848076850,1.0082483291626,0.0
$ Elements and Element Properties for region : hingePin
PBEAML   2       2               ROD
        .0015
$ Pset: "hingePin" will be imported as: "pbeaml.2"
CBEAM    101     2       112     209     0.      0.     1.
         4
CBEAM    102     2       113     209     0.      0.     1.
         4
$ Elements and Element Properties for region : torsionSpring
PBUSH    3       K                              1.0-5
$ Pset: "torsionSpring" will be imported as: "pbush.3"
CBUSH    103     3       112     209     0.      0.     1.
CBUSH    104     3       113     209     0.      0.     1.
